LAMMPS (3 Mar 2020)

#-------------------------- Initial Setup -------------------------------------#
units       lj
atom_style  atomic
dimension   3
boundary    p p p
timestep    0.01
#------------------------------------------------------------------------------#

pair_style lj/cut 2.5 #

#-------------------------- Atomic Setup --------------------------------------#
region film block 0 100 0 3 0 6 # Geometrical region.
create_box 2 film # Create simulation box.
Created orthogonal box = (0 0 0) to (100 3 6)
create_atoms 1 random 3375 30 film # Create atoms at random within film.
Created 3375 atoms
create_atoms 2 random 3375 340 film # Create atoms at random within film.
Created 3375 atoms

neigh_modify every 1 delay 0 check yes # Update neighbor list.

#minimize 1.0e-4 1.0e-6 1000 1000
mass 1 1
mass 2 1
#mass 3 10

pair_style lj/cut 2.5 # Define interaction potential.
#pair_coeff * * 1 1
pair_coeff 1 1 1.0 1.0 1.5
pair_coeff 1 2 1.5 0.80 2
pair_coeff 2 2 0.5 0.88 2.2
#pair_style table lookup 100000
#pair_coeff * 1 potential.table CUSTOM 2.5

minimize 1.0e-4 1.0e-6 1000 1000
  update every 1 steps, delay 0 steps, check yes
Step Temp E_pair E_mol TotEng Press
0            0 2.290746e+15            0 2.290746e+15 3.436119e+16
Loop time of 3.88218 on 1 procs for 140 steps with 6750 atoms

Minimization stats:
  Stopping criterion = energy tolerance
  Energy initial, next-to-last, final =
  Force two-norm initial, final = 6.23809e+21 57302.6
  Force max component initial, final = 3.05652e+21 26516
  Final line search alpha, max atom move = 3.26014e-05 0.86446
  Iterations, force evaluations = 140 265

#-------------------------------- Outputs -------------------------------------#

#dump 1 all xyz 1000 traj_short.xyz
#compute stress all centroid/stress/atom NULL
#compute stress all stress/atom NULL
#compute press all pressure NULL pair
#compute area all voronoi/atom surface all
#compute tot_area all reduce sum c_area[3]
dump 1 all atom 1000 traj_KA_3.out
dump 3 all xyz 1000 traj_KA_9.xyz
dump_modify 1 sort id append yes
#dump_modify 2 sort c_stress[*] append yess
#dump 2 all custom 1000 stress.out c_stress[*]
#dump 3 all custom 1000 press.out c_press
#dump 4 all custom 1000 area.out c_tot_area
thermo 1000
thermo_style custom step temp press density ly
#pair_write 1 1 100000 r .0001 2.5 interp.table CUSTOM

#------------------------------------------------------------------------------#

#------------------------- Running the Simulation -----------------------------#
fix 1 all nve/limit 0.1
fix 2 all langevin 2.0 2.0 0.5 1530917 zero yes
velocity all create 2.0 4928351 mom yes rot yes dist gaussian
run 5000
Step Temp Press Density Ly
140            2    3633.2685         3.75            3
Loop time of 85.9964 on 1 procs for 5000 steps with 6750 atoms

unfix 1
unfix 2
#------------------------------------------------------------------------------#

fix 10 all nvt temp 3 0.1 $(100.0*dt)
fix 10 all nvt temp 3 0.1 1
run 5000
Step Temp Press Density Ly
5140    30.664587    5881.3363         3.75            3
ERROR: Lost atoms: original 6750 current 649 (../thermo.cpp:438)
Last command: run 5000
